9
Coordinates from ORCA-job opt
  C   -0.03755321161417     -0.00911185445577     -0.01918989958540
  C   -1.39117841534320      0.36996804039945     -0.58596405265129
  O   -2.00889499275198     -0.82210548485102     -1.08863288375440
  H   -2.87686218581625     -0.57839331384797     -1.45044226285198
  H   -2.01596151129499      0.83195785644022      0.20297938841518
  H   -1.26746860115441      1.11661367592744     -1.39447372216607
  H   0.47627575905402      0.87866560237122      0.37687203013968
  H   -0.15157169847923     -0.73806186958380      0.79574777881593
  H   0.59502314740021     -0.45824061239977     -0.79816244636166
