12
Coordinates from ORCA-job opt
  C   -2.57793327630442      2.15866523857291     -0.00014459644285
  C   -3.72930984594190      1.36662755934144     -0.00000052738298
  C   -1.31617492863774      1.55771567165257      0.00001862378218
  C   -2.35772328592893     -0.62711339396213     -0.00001619737937
  H   -2.27198661061416     -1.71580406462869     -0.00005968404773
  H   -4.71429801064220      1.83728283337206      0.00008819725303
  H   -4.51806330790369     -0.64587807890662      0.00003607779013
  H   -2.66514562296229      3.24720656238127     -0.00007891147320
  C   -3.61951702254642     -0.02614941521141      0.00002632105883
  C   -1.20641493975810      0.16451876814444      0.00000584028841
  H   -0.41644521741549      2.17570724614643      0.00013164123453
  H   -0.22056793134465     -0.30439892690228     -0.00000678468099
