20

C    0.00000000  0.00000000  0.00000000
C    1.38696846  0.51332774  0.42943349
C    2.38956958 -0.65559955  0.42943349
C    3.77653804 -0.14227181  0.85886699
C    4.77913916 -1.31119909  0.85886699
C    6.16610762 -0.79787135  1.28830048
H    6.87574088 -1.62522898  1.28830048
H    6.50193539 -0.03115589  0.59011203
H    6.10233206 -0.37389982  2.29043860
H    4.44331139 -2.07791456  1.55705543
H    4.84291472 -1.73517062 -0.14327114
H    4.11236581  0.62444366  0.16067854
H    3.71276248  0.28169972  1.86100511
H    2.05374181 -1.42231501  1.12762194
H    2.45334514 -1.07957107 -0.57270463
H    1.72279623  1.28004320 -0.26875495
H    1.32319290  0.93729927  1.43157162
H   -0.70963326  0.82735762  0.00000000
H    0.06377556 -0.42397153 -1.00213812
H   -0.33582777 -0.76671547  0.69818844
